Setup-time
$DATA1 SOURCE='HSPICE' VERSION='L-2016.06-SP1 linux64' PARAM_COUNT=1
.TITLE '.title sub-circuit (dff)'
 time_0           clk2q            temper           alter#          
  9.500e-10        4.549e-11         25.0000        1               
  9.510e-10        4.549e-11         25.0000        1               
  9.520e-10        4.549e-11         25.0000        1               
  9.530e-10        4.549e-11         25.0000        1               
  9.540e-10        4.549e-11         25.0000        1               
  9.550e-10        4.549e-11         25.0000        1               
  9.560e-10        4.549e-11         25.0000        1               
  9.570e-10        4.549e-11         25.0000        1               
  9.580e-10        4.549e-11         25.0000        1               
  9.590e-10        4.549e-11         25.0000        1               
  9.600e-10        4.548e-11         25.0000        1               
  9.610e-10        4.548e-11         25.0000        1               
  9.620e-10        4.547e-11         25.0000        1               
  9.630e-10        4.546e-11         25.0000        1               
  9.640e-10        4.545e-11         25.0000        1               
  9.650e-10        4.544e-11         25.0000        1               
  9.660e-10        4.543e-11         25.0000        1               
  9.670e-10        4.542e-11         25.0000        1               
  9.680e-10        4.540e-11         25.0000        1               
  9.690e-10        4.538e-11         25.0000        1               
  9.700e-10        4.537e-11         25.0000        1               
  9.710e-10        4.535e-11         25.0000        1               
  9.720e-10        4.534e-11         25.0000        1               
  9.730e-10        4.534e-11         25.0000        1               
  9.740e-10        4.531e-11         25.0000        1               
  9.750e-10        4.529e-11         25.0000        1               
  9.760e-10        4.528e-11         25.0000        1               
  9.770e-10        4.526e-11         25.0000        1               
  9.780e-10        4.525e-11         25.0000        1               
  9.790e-10        4.524e-11         25.0000        1               
  9.800e-10        4.529e-11         25.0000        1               
  9.810e-10        4.521e-11         25.0000        1               
  9.820e-10        4.521e-11         25.0000        1               
  9.830e-10        4.520e-11         25.0000        1               
  9.840e-10        4.517e-11         25.0000        1               
  9.850e-10        4.517e-11         25.0000        1               
  9.860e-10        4.517e-11         25.0000        1               
  9.870e-10        4.518e-11         25.0000        1               
  9.880e-10        4.529e-11         25.0000        1               
  9.890e-10        4.560e-11         25.0000        1               
  9.900e-10        4.663e-11         25.0000        1               
  9.910e-10        5.038e-11         25.0000        1               
  9.920e-10          failed          25.0000        1               
  9.930e-10          failed          25.0000        1               
  9.940e-10          failed          25.0000        1               
  9.950e-10          failed          25.0000        1               
  9.960e-10          failed          25.0000        1               
  9.970e-10          failed          25.0000        1               
  9.980e-10          failed          25.0000        1               
  9.990e-10          failed          25.0000        1               
  1.000e-09          failed          25.0000        1               

Hold time
$DATA1 SOURCE='HSPICE' VERSION='L-2016.06-SP1 linux64' PARAM_COUNT=1
.TITLE '.title sub-circuit (dff)'
 time_0           clk2q            temper           alter#          
  9.500e-10          failed          25.0000        1               
  9.510e-10          failed          25.0000        1               
  9.520e-10          failed          25.0000        1               
  9.530e-10          failed          25.0000        1               
  9.540e-10          failed          25.0000        1               
  9.550e-10          failed          25.0000        1               
  9.560e-10          failed          25.0000        1               
  9.570e-10          failed          25.0000        1               
  9.580e-10          failed          25.0000        1               
  9.590e-10          failed          25.0000        1               
  9.600e-10          failed          25.0000        1               
  9.610e-10          failed          25.0000        1               
  9.620e-10          failed          25.0000        1               
  9.630e-10          failed          25.0000        1               
  9.640e-10          failed          25.0000        1               
  9.650e-10          failed          25.0000        1               
  9.660e-10          failed          25.0000        1               
  9.670e-10          failed          25.0000        1               
  9.680e-10          failed          25.0000        1               
  9.690e-10          failed          25.0000        1               
  9.700e-10          failed          25.0000        1               
  9.710e-10          failed          25.0000        1               
  9.720e-10          failed          25.0000        1               
  9.730e-10          failed          25.0000        1               
  9.740e-10          failed          25.0000        1               
  9.750e-10          failed          25.0000        1               
  9.760e-10          failed          25.0000        1               
  9.770e-10          failed          25.0000        1               
  9.780e-10          failed          25.0000        1               
  9.790e-10          failed          25.0000        1               
  9.800e-10          failed          25.0000        1               
  9.810e-10          failed          25.0000        1               
  9.820e-10          failed          25.0000        1               
  9.830e-10          failed          25.0000        1               
  9.840e-10          failed          25.0000        1               
  9.850e-10          failed          25.0000        1               
  9.860e-10          failed          25.0000        1               
  9.870e-10          failed          25.0000        1               
  9.880e-10          failed          25.0000        1               
  9.890e-10          failed          25.0000        1               
  9.900e-10          failed          25.0000        1               
  9.910e-10          failed          25.0000        1               
  9.920e-10          failed          25.0000        1               
  9.930e-10          failed          25.0000        1               
  9.940e-10          failed          25.0000        1               
  9.950e-10          failed          25.0000        1               
  9.960e-10          failed          25.0000        1               
  9.970e-10          failed          25.0000        1               
  9.980e-10        5.121e-11         25.0000        1               
  9.990e-10        4.857e-11         25.0000        1               
  1.000e-09        4.728e-11         25.0000        1               
  1.001e-09        4.677e-11         25.0000        1               
  1.002e-09        4.646e-11         25.0000        1               
  1.003e-09        4.629e-11         25.0000        1               
  1.004e-09        4.624e-11         25.0000        1               
  1.005e-09        4.610e-11         25.0000        1               
  1.006e-09        4.602e-11         25.0000        1               
  1.007e-09        4.597e-11         25.0000        1               
  1.008e-09        4.594e-11         25.0000        1               
  1.009e-09        4.589e-11         25.0000        1               
  1.010e-09        4.585e-11         25.0000        1               
  1.011e-09        4.581e-11         25.0000        1               
  1.012e-09        4.578e-11         25.0000        1               
  1.013e-09        4.576e-11         25.0000        1               
  1.014e-09        4.572e-11         25.0000        1               
  1.015e-09        4.573e-11         25.0000        1               
  1.016e-09        4.566e-11         25.0000        1               
  1.017e-09        4.564e-11         25.0000        1               
  1.018e-09        4.566e-11         25.0000        1               
  1.019e-09        4.560e-11         25.0000        1               
  1.020e-09        4.563e-11         25.0000        1               
  1.021e-09        4.557e-11         25.0000        1               
  1.022e-09        4.556e-11         25.0000        1               
  1.023e-09        4.558e-11         25.0000        1               
  1.024e-09        4.550e-11         25.0000        1               
  1.025e-09        4.556e-11         25.0000        1               
  1.026e-09        4.548e-11         25.0000        1               
  1.027e-09        4.553e-11         25.0000        1               
  1.028e-09        4.551e-11         25.0000        1               
  1.029e-09        4.553e-11         25.0000        1               
  1.030e-09        4.550e-11         25.0000        1               
  1.031e-09        4.550e-11         25.0000        1               
  1.032e-09        4.556e-11         25.0000        1               
  1.033e-09        4.550e-11         25.0000        1               
  1.034e-09        4.549e-11         25.0000        1               
  1.035e-09        4.554e-11         25.0000        1               
  1.036e-09        4.555e-11         25.0000        1               
  1.037e-09        4.553e-11         25.0000        1               
  1.038e-09        4.554e-11         25.0000        1               
  1.039e-09        4.554e-11         25.0000        1               
  1.040e-09        4.551e-11         25.0000        1               
  1.041e-09        4.551e-11         25.0000        1               
  1.042e-09        4.551e-11         25.0000        1               
  1.043e-09        4.550e-11         25.0000        1               
  1.044e-09        4.553e-11         25.0000        1               
  1.045e-09        4.552e-11         25.0000        1               
  1.046e-09        4.552e-11         25.0000        1               
  1.047e-09        4.551e-11         25.0000        1               
  1.048e-09        4.554e-11         25.0000        1               
  1.049e-09        4.558e-11         25.0000        1               
  1.050e-09        4.556e-11         25.0000        1               
  1.051e-09        4.553e-11         25.0000        1               
  1.052e-09        4.552e-11         25.0000        1               
  1.053e-09        4.551e-11         25.0000        1               
  1.054e-09        4.555e-11         25.0000        1               
  1.055e-09        4.550e-11         25.0000        1               
  1.056e-09        4.551e-11         25.0000        1               
  1.057e-09        4.551e-11         25.0000        1               
  1.058e-09        4.551e-11         25.0000        1               
  1.059e-09        4.551e-11         25.0000        1               
  1.060e-09        4.555e-11         25.0000        1               
  1.061e-09        4.556e-11         25.0000        1               
  1.062e-09        4.556e-11         25.0000        1               
  1.063e-09        4.557e-11         25.0000        1               
  1.064e-09        4.553e-11         25.0000        1               
  1.065e-09        4.552e-11         25.0000        1               
  1.066e-09        4.551e-11         25.0000        1               
  1.067e-09        4.550e-11         25.0000        1               
  1.068e-09        4.551e-11         25.0000        1               
  1.069e-09        4.551e-11         25.0000        1               
  1.070e-09        4.551e-11         25.0000        1               
  1.071e-09        4.551e-11         25.0000        1               
  1.072e-09        4.551e-11         25.0000        1               
  1.073e-09        4.551e-11         25.0000        1               
  1.074e-09        4.551e-11         25.0000        1               
  1.075e-09        4.551e-11         25.0000        1               
  1.076e-09        4.551e-11         25.0000        1               
  1.077e-09        4.551e-11         25.0000        1               
  1.078e-09        4.551e-11         25.0000        1               
  1.079e-09        4.551e-11         25.0000        1               
  1.080e-09        4.551e-11         25.0000        1               
  1.081e-09        4.551e-11         25.0000        1               
  1.082e-09        4.551e-11         25.0000        1               
  1.083e-09        4.551e-11         25.0000        1               
  1.084e-09        4.551e-11         25.0000        1               
  1.085e-09        4.551e-11         25.0000        1               
  1.086e-09        4.551e-11         25.0000        1               
  1.087e-09        4.551e-11         25.0000        1               
  1.088e-09        4.551e-11         25.0000        1               
  1.089e-09        4.551e-11         25.0000        1               
  1.090e-09        4.551e-11         25.0000        1               
  1.091e-09        4.551e-11         25.0000        1               
  1.092e-09        4.551e-11         25.0000        1               
  1.093e-09        4.551e-11         25.0000        1               
  1.094e-09        4.551e-11         25.0000        1               
  1.095e-09        4.551e-11         25.0000        1               
  1.096e-09        4.551e-11         25.0000        1               
  1.097e-09        4.551e-11         25.0000        1               
  1.098e-09        4.551e-11         25.0000        1               
  1.099e-09        4.551e-11         25.0000        1               
  1.100e-09        4.551e-11         25.0000        1               
